Version 4
SHEET 1 1628 1032
WIRE 1328 64 1328 48
WIRE 1152 208 1072 208
WIRE 1328 208 1328 144
WIRE 1328 208 1232 208
WIRE 1328 224 1328 208
WIRE 1424 224 1328 224
WIRE 1584 224 1504 224
WIRE 1152 288 1072 288
WIRE 1328 288 1328 224
WIRE 1328 288 1232 288
WIRE 1152 368 1072 368
WIRE 1328 368 1328 288
WIRE 1328 368 1232 368
WIRE 960 448 928 448
WIRE 1328 448 1328 368
WIRE 1328 448 1040 448
WIRE 1328 480 1328 448
WIRE 1424 480 1328 480
WIRE 1584 480 1504 480
WIRE 1152 496 1072 496
WIRE 1328 496 1328 480
WIRE 1328 496 1232 496
WIRE 1152 640 1072 640
WIRE 1328 640 1328 496
WIRE 1328 640 1232 640
WIRE 1328 752 1328 640
WIRE 1392 752 1328 752
WIRE 1584 752 1472 752
WIRE 1152 768 1072 768
WIRE 1328 768 1328 752
WIRE 1328 768 1232 768
WIRE 1328 800 1328 768
WIRE 1328 912 1328 880
FLAG 928 448 sel
FLAG 1328 48 vdd
FLAG 1584 224 o1
FLAG 1584 480 o2
FLAG 1584 752 o3
FLAG 1072 208 a1
FLAG 1072 368 a2
FLAG 1072 640 a3
FLAG 1072 288 b1
FLAG 1072 496 b2
FLAG 1072 768 b3
FLAG 1328 912 vss
SYMBOL /res 1520 464 R90
WINDOW 0 0 56 VBottom 2
WINDOW 3 32 56 VTop 2
SYMATTR InstName R1
SYMATTR Value 1
SYMBOL /res 1520 208 R90
WINDOW 0 0 56 VBottom 2
WINDOW 3 32 56 VTop 2
SYMATTR InstName R2
SYMATTR Value 1
SYMBOL /res 1248 192 R90
WINDOW 0 0 56 VBottom 2
WINDOW 3 32 56 VTop 2
SYMATTR InstName R3
SYMATTR Value 1
SYMBOL /res 1248 272 R90
WINDOW 0 0 56 VBottom 2
WINDOW 3 32 56 VTop 2
SYMATTR InstName R4
SYMATTR Value 1
SYMBOL /res 1248 352 R90
WINDOW 0 0 56 VBottom 2
WINDOW 3 32 56 VTop 2
SYMATTR InstName R5
SYMATTR Value 1
SYMBOL /res 1248 480 R90
WINDOW 0 0 56 VBottom 2
WINDOW 3 32 56 VTop 2
SYMATTR InstName R6
SYMATTR Value 1
SYMBOL /res 1248 624 R90
WINDOW 0 0 56 VBottom 2
WINDOW 3 32 56 VTop 2
SYMATTR InstName R7
SYMATTR Value 1
SYMBOL /res 1248 752 R90
WINDOW 0 0 56 VBottom 2
WINDOW 3 32 56 VTop 2
SYMATTR InstName R8
SYMATTR Value 1
SYMBOL /res 1488 736 R90
WINDOW 0 0 56 VBottom 2
WINDOW 3 32 56 VTop 2
SYMATTR InstName R9
SYMATTR Value 1
SYMBOL /res 1312 784 R0
SYMATTR InstName R10
SYMATTR Value 1
SYMBOL /res 1312 48 R0
SYMATTR InstName R12
SYMATTR Value 1
SYMBOL /res 1056 432 R90
WINDOW 0 0 56 VBottom 2
WINDOW 3 32 56 VTop 2
SYMATTR InstName R13
SYMATTR Value 1
