Version 4
SHEET 1 1192 788
WIRE 608 160 448 160
WIRE 448 176 448 160
WIRE 448 224 448 176
WIRE 512 224 448 224
WIRE 608 224 608 160
WIRE 688 224 608 224
WIRE 448 240 448 224
WIRE 608 240 608 224
WIRE 512 288 512 224
WIRE 512 288 448 288
WIRE 688 288 688 224
WIRE 688 288 608 288
WIRE 448 384 448 336
WIRE 608 384 608 336
WIRE 608 384 448 384
WIRE 448 416 448 384
WIRE 448 464 448 416
WIRE 592 512 448 512
WIRE 592 608 592 512
WIRE 592 608 448 608
WIRE 448 656 448 640
WIRE 592 656 592 608
WIRE 592 656 448 656
FLAG 448 176 vdd
FLAG 448 416 Q
FLAG 400 320 in1
FLAG 560 320 in2
FLAG 400 544 in1
FLAG 400 640 in2
FLAG 448 656 vss
SYMBOL pmos4 400 240 R0
SYMATTR InstName M1
SYMATTR Value2 l={ll} w={wp} ad={450n*{wp}} as={450n*{wp}} pd={900n+{wp}} ps={1080n+{wp}}
SYMBOL pmos4 560 240 R0
SYMATTR InstName M3
SYMATTR Value2 l={ll} w={wp} ad={450n*{wp}} as={450n*{wp}} pd={900n+{wp}} ps={1080n+{wp}}
SYMBOL pmos4 400 464 R0
SYMATTR InstName M2
SYMATTR Value NMOS
SYMATTR Value2 l={ll} w=2*{wn} ad={450n*{wn}} as={450n*{wn}} pd={900n+{wn}} ps={1080n+{wn}}
SYMBOL pmos4 400 560 R0
SYMATTR InstName M4
SYMATTR Value NMOS
SYMATTR Value2 l={ll} w=2*{wn} ad={450n*{wn}} as={450n*{wn}} pd={900n+{wn}} ps={1080n+{wn}}
TEXT -264 120 Left 2 !.lib BU_180nm.lib
TEXT 936 136 Left 2 ;Parametres requis: \nll=longueur \nwn=largeur_nmos \nwp=largeur_pmos
