Version 4
SHEET 1 1192 1108
WIRE 368 544 304 544
WIRE 464 544 368 544
WIRE 528 544 464 544
WIRE 672 544 528 544
WIRE 672 592 672 544
WIRE 736 592 672 592
WIRE 304 608 304 544
WIRE 464 608 464 544
WIRE 672 608 672 592
WIRE 368 656 368 544
WIRE 368 656 304 656
WIRE 528 656 528 544
WIRE 528 656 464 656
WIRE 736 656 736 592
WIRE 736 656 672 656
WIRE 624 688 576 688
WIRE 672 736 672 704
WIRE 304 752 304 704
WIRE 464 752 464 704
WIRE 464 752 304 752
WIRE 576 752 576 688
WIRE 576 752 464 752
WIRE 304 784 304 752
WIRE 464 784 464 752
WIRE 672 784 672 736
WIRE 688 784 672 784
WIRE 688 800 688 784
WIRE 448 832 304 832
WIRE 800 848 688 848
WIRE 576 864 576 752
WIRE 624 864 576 864
WIRE 624 880 624 864
WIRE 640 880 624 880
WIRE 688 912 688 896
WIRE 800 912 800 848
WIRE 800 912 688 912
WIRE 304 928 304 880
WIRE 688 928 688 912
WIRE 448 976 448 832
WIRE 448 976 304 976
WIRE 448 1024 448 976
WIRE 448 1024 304 1024
FLAG -112 256 vdd
FLAG 464 544 vdd
FLAG 688 928 vss
FLAG 672 736 Q
FLAG 256 688 in1
FLAG 416 688 in2
FLAG 256 864 in1
FLAG 304 1024 vss
FLAG 256 1008 in2
SYMBOL nmos4 256 784 R0
SYMATTR InstName M1
SYMATTR Value2 l={ll} w={wn} ad={450n*{wn}} as={450n*{wn}} pd={900n+{wn}} ps={1080n+{wn}}
SYMBOL nmos4 640 800 R0
SYMATTR InstName M3
SYMATTR Value2 l={ll} w={wn} ad={450n*{wn}} as={450n*{wn}} pd={900n+{wn}} ps={1080n+{wn}}
SYMBOL pmos4 256 608 R0
SYMATTR InstName M4
SYMATTR Value2 l={ll} w={wp} ad={450n*{wp}} as={450n*{wp}} pd={900n+{wp}} ps={1080n+{wp}}
SYMBOL pmos4 416 608 R0
SYMATTR InstName M5
SYMATTR Value2 l={ll} w={wp} ad={450n*{wp}} as={450n*{wp}} pd={900n+{wp}} ps={1080n+{wp}}
SYMBOL pmos4 624 608 R0
SYMATTR InstName M6
SYMATTR Value2 l={ll} w={wp} ad={450n*{wp}} as={450n*{wp}} pd={900n+{wp}} ps={1080n+{wp}}
SYMBOL nmos4 256 928 R0
SYMATTR InstName M2
SYMATTR Value2 l={ll} w={wn} ad={450n*{wn}} as={450n*{wn}} pd={900n+{wn}} ps={1080n+{wn}}
TEXT 152 200 Left 2 !.lib BU_180nm.lib
TEXT 576 192 Left 2 ;Parametres requis: \nll=longueur \nwn=largeur_nmos \nwp=largeur_pmos
